<?xml version="1.0" encoding="UTF-8"?>

<!-- generated on 2021-08-12  2:17:09 by Eclipse SUMO netedit Version 1.9.0
<configuration xmlns:xsi="http://www.w3.org/2001/XMLSchema-instance" xsi:noNamespaceSchemaLocation="http://sumo.dlr.de/xsd/netconvertConfiguration.xsd">

    <input>
        <sumo-net-file value="C:\Program%20Files%20(x86)\Eclipse\Sumo\0811\demo.net.xml"/>
    </input>

    <output>
        <output-file value="C:\Program%20Files%20(x86)\Eclipse\Sumo\0811\demo.net.xml"/>
    </output>

    <processing>
        <geometry.min-radius.fix.railways value="false"/>
        <geometry.max-grade.fix value="false"/>
        <offset.disable-normalization value="true"/>
        <lefthand value="false"/>
    </processing>

    <junctions>
        <no-turnarounds value="true"/>
        <junctions.corner-detail value="5"/>
        <junctions.limit-turn-speed value="5.5"/>
        <rectangular-lane-cut value="false"/>
    </junctions>

    <pedestrian>
        <walkingareas value="false"/>
    </pedestrian>

    <report>
        <aggregate-warnings value="5"/>
    </report>

</configuration>
-->

<net version="1.9" junctionCornerDetail="5" limitTurnSpeed="5.50" xmlns:xsi="http://www.w3.org/2001/XMLSchema-instance" xsi:noNamespaceSchemaLocation="http://sumo.dlr.de/xsd/net_file.xsd">

    <location netOffset="0.00,0.00" convBoundary="-700.00,-700.00,500.00,500.00" origBoundary="-10000000000.00,-10000000000.00,10000000000.00,10000000000.00" projParameter="!"/>

    <edge id=":gneJ10_0" function="internal">
        <lane id=":gneJ10_0_0" index="0" speed="13.89" length="14.40" shape="-592.80,501.60 -607.20,501.60"/>
    </edge>
    <edge id=":gneJ10_1" function="internal">
        <lane id=":gneJ10_1_0" index="0" speed="8.00" length="5.93" shape="-592.80,501.60 -596.65,501.05 -598.40,500.00"/>
    </edge>
    <edge id=":gneJ10_6" function="internal">
        <lane id=":gneJ10_6_0" index="0" speed="8.00" length="8.26" shape="-598.40,500.00 -599.40,499.40 -601.05,496.65 -601.60,492.80"/>
    </edge>
    <edge id=":gneJ10_2" function="internal">
        <lane id=":gneJ10_2_0" index="0" speed="6.51" length="9.03" shape="-598.40,492.80 -598.05,495.25 -597.00,497.00 -595.25,498.05 -592.80,498.40"/>
    </edge>
    <edge id=":gneJ10_3" function="internal">
        <lane id=":gneJ10_3_0" index="0" speed="8.00" length="14.19" shape="-598.40,492.80 -598.95,496.65 -600.60,499.40 -603.35,501.05 -607.20,501.60"/>
    </edge>
    <edge id=":gneJ10_4" function="internal">
        <lane id=":gneJ10_4_0" index="0" speed="6.51" length="9.03" shape="-607.20,498.40 -604.75,498.05 -603.00,497.00 -601.95,495.25 -601.60,492.80"/>
    </edge>
    <edge id=":gneJ10_5" function="internal">
        <lane id=":gneJ10_5_0" index="0" speed="13.89" length="14.40" shape="-607.20,498.40 -592.80,498.40"/>
    </edge>
    <edge id=":gneJ100_0" function="internal">
        <lane id=":gneJ100_0_0" index="0" speed="13.89" length="14.40" shape="-701.60,-192.80 -701.60,-207.20"/>
    </edge>
    <edge id=":gneJ100_1" function="internal">
        <lane id=":gneJ100_1_0" index="0" speed="8.00" length="5.93" shape="-701.60,-192.80 -701.05,-196.65 -700.00,-198.40"/>
    </edge>
    <edge id=":gneJ100_6" function="internal">
        <lane id=":gneJ100_6_0" index="0" speed="8.00" length="8.26" shape="-700.00,-198.40 -699.40,-199.40 -696.65,-201.05 -692.80,-201.60"/>
    </edge>
    <edge id=":gneJ100_2" function="internal">
        <lane id=":gneJ100_2_0" index="0" speed="6.51" length="9.03" shape="-692.80,-198.40 -695.25,-198.05 -697.00,-197.00 -698.05,-195.25 -698.40,-192.80"/>
    </edge>
    <edge id=":gneJ100_3" function="internal">
        <lane id=":gneJ100_3_0" index="0" speed="8.00" length="14.19" shape="-692.80,-198.40 -696.65,-198.95 -699.40,-200.60 -701.05,-203.35 -701.60,-207.20"/>
    </edge>
    <edge id=":gneJ100_4" function="internal">
        <lane id=":gneJ100_4_0" index="0" speed="6.51" length="9.03" shape="-698.40,-207.20 -698.05,-204.75 -697.00,-203.00 -695.25,-201.95 -692.80,-201.60"/>
    </edge>
    <edge id=":gneJ100_5" function="internal">
        <lane id=":gneJ100_5_0" index="0" speed="13.89" length="14.40" shape="-698.40,-207.20 -698.40,-192.80"/>
    </edge>
    <edge id=":gneJ101_0" function="internal">
        <lane id=":gneJ101_0_0" index="0" speed="6.51" length="9.03" shape="-601.60,-192.80 -601.95,-195.25 -603.00,-197.00 -604.75,-198.05 -607.20,-198.40"/>
    </edge>
    <edge id=":gneJ101_1" function="internal">
        <lane id=":gneJ101_1_0" index="0" speed="13.89" length="14.40" shape="-601.60,-192.80 -601.60,-207.20"/>
    </edge>
    <edge id=":gneJ101_2" function="internal">
        <lane id=":gneJ101_2_0" index="0" speed="8.00" length="5.93" shape="-601.60,-192.80 -601.05,-196.65 -600.00,-198.40"/>
    </edge>
    <edge id=":gneJ101_12" function="internal">
        <lane id=":gneJ101_12_0" index="0" speed="8.00" length="8.26" shape="-600.00,-198.40 -599.40,-199.40 -596.65,-201.05 -592.80,-201.60"/>
    </edge>
    <edge id=":gneJ101_3" function="internal">
        <lane id=":gneJ101_3_0" index="0" speed="6.51" length="9.03" shape="-592.80,-198.40 -595.25,-198.05 -597.00,-197.00 -598.05,-195.25 -598.40,-192.80"/>
    </edge>
    <edge id=":gneJ101_4" function="internal">
        <lane id=":gneJ101_4_0" index="0" speed="13.89" length="14.40" shape="-592.80,-198.40 -607.20,-198.40"/>
    </edge>
    <edge id=":gneJ101_5" function="internal">
        <lane id=":gneJ101_5_0" index="0" speed="8.00" length="14.19" shape="-592.80,-198.40 -596.65,-198.95 -599.40,-200.60 -601.05,-203.35 -601.60,-207.20"/>
    </edge>
    <edge id=":gneJ101_6" function="internal">
        <lane id=":gneJ101_6_0" index="0" speed="6.51" length="9.03" shape="-598.40,-207.20 -598.05,-204.75 -597.00,-203.00 -595.25,-201.95 -592.80,-201.60"/>
    </edge>
    <edge id=":gneJ101_7" function="internal">
        <lane id=":gneJ101_7_0" index="0" speed="13.89" length="14.40" shape="-598.40,-207.20 -598.40,-192.80"/>
    </edge>
    <edge id=":gneJ101_8" function="internal">
        <lane id=":gneJ101_8_0" index="0" speed="8.00" length="5.93" shape="-598.40,-207.20 -598.95,-203.35 -600.00,-201.60"/>
    </edge>
    <edge id=":gneJ101_13" function="internal">
        <lane id=":gneJ101_13_0" index="0" speed="8.00" length="8.26" shape="-600.00,-201.60 -600.60,-200.60 -603.35,-198.95 -607.20,-198.40"/>
    </edge>
    <edge id=":gneJ101_9" function="internal">
        <lane id=":gneJ101_9_0" index="0" speed="6.51" length="9.03" shape="-607.20,-201.60 -604.75,-201.95 -603.00,-203.00 -601.95,-204.75 -601.60,-207.20"/>
    </edge>
    <edge id=":gneJ101_10" function="internal">
        <lane id=":gneJ101_10_0" index="0" speed="13.89" length="14.40" shape="-607.20,-201.60 -592.80,-201.60"/>
    </edge>
    <edge id=":gneJ101_11" function="internal">
        <lane id=":gneJ101_11_0" index="0" speed="8.00" length="14.19" shape="-607.20,-201.60 -603.35,-201.05 -600.60,-199.40 -598.95,-196.65 -598.40,-192.80"/>
    </edge>
    <edge id=":gneJ102_0" function="internal">
        <lane id=":gneJ102_0_0" index="0" speed="6.51" length="9.03" shape="-501.60,-192.80 -501.95,-195.25 -503.00,-197.00 -504.75,-198.05 -507.20,-198.40"/>
    </edge>
    <edge id=":gneJ102_1" function="internal">
        <lane id=":gneJ102_1_0" index="0" speed="13.89" length="14.40" shape="-501.60,-192.80 -501.60,-207.20"/>
    </edge>
    <edge id=":gneJ102_2" function="internal">
        <lane id=":gneJ102_2_0" index="0" speed="8.00" length="5.93" shape="-501.60,-192.80 -501.05,-196.65 -500.00,-198.40"/>
    </edge>
    <edge id=":gneJ102_12" function="internal">
        <lane id=":gneJ102_12_0" index="0" speed="8.00" length="8.26" shape="-500.00,-198.40 -499.40,-199.40 -496.65,-201.05 -492.80,-201.60"/>
    </edge>
    <edge id=":gneJ102_3" function="internal">
        <lane id=":gneJ102_3_0" index="0" speed="6.51" length="9.03" shape="-492.80,-198.40 -495.25,-198.05 -497.00,-197.00 -498.05,-195.25 -498.40,-192.80"/>
    </edge>
    <edge id=":gneJ102_4" function="internal">
        <lane id=":gneJ102_4_0" index="0" speed="13.89" length="14.40" shape="-492.80,-198.40 -507.20,-198.40"/>
    </edge>
    <edge id=":gneJ102_5" function="internal">
        <lane id=":gneJ102_5_0" index="0" speed="8.00" length="14.19" shape="-492.80,-198.40 -496.65,-198.95 -499.40,-200.60 -501.05,-203.35 -501.60,-207.20"/>
    </edge>
    <edge id=":gneJ102_6" function="internal">
        <lane id=":gneJ102_6_0" index="0" speed="6.51" length="9.03" shape="-498.40,-207.20 -498.05,-204.75 -497.00,-203.00 -495.25,-201.95 -492.80,-201.60"/>
    </edge>
    <edge id=":gneJ102_7" function="internal">
        <lane id=":gneJ102_7_0" index="0" speed="13.89" length="14.40" shape="-498.40,-207.20 -498.40,-192.80"/>
    </edge>
    <edge id=":gneJ102_8" function="internal">
        <lane id=":gneJ102_8_0" index="0" speed="8.00" length="5.93" shape="-498.40,-207.20 -498.95,-203.35 -500.00,-201.60"/>
    </edge>
    <edge id=":gneJ102_13" function="internal">
        <lane id=":gneJ102_13_0" index="0" speed="8.00" length="8.26" shape="-500.00,-201.60 -500.60,-200.60 -503.35,-198.95 -507.20,-198.40"/>
    </edge>
    <edge id=":gneJ102_9" function="internal">
        <lane id=":gneJ102_9_0" index="0" speed="6.51" length="9.03" shape="-507.20,-201.60 -504.75,-201.95 -503.00,-203.00 -501.95,-204.75 -501.60,-207.20"/>
    </edge>
    <edge id=":gneJ102_10" function="internal">
        <lane id=":gneJ102_10_0" index="0" speed="13.89" length="14.40" shape="-507.20,-201.60 -492.80,-201.60"/>
    </edge>
    <edge id=":gneJ102_11" function="internal">
        <lane id=":gneJ102_11_0" index="0" speed="8.00" length="14.19" shape="-507.20,-201.60 -503.35,-201.05 -500.60,-199.40 -498.95,-196.65 -498.40,-192.80"/>
    </edge>
    <edge id=":gneJ103_0" function="internal">
        <lane id=":gneJ103_0_0" index="0" speed="6.51" length="9.03" shape="-401.60,-192.80 -401.95,-195.25 -403.00,-197.00 -404.75,-198.05 -407.20,-198.40"/>
    </edge>
    <edge id=":gneJ103_1" function="internal">
        <lane id=":gneJ103_1_0" index="0" speed="13.89" length="14.40" shape="-401.60,-192.80 -401.60,-207.20"/>
    </edge>
    <edge id=":gneJ103_2" function="internal">
        <lane id=":gneJ103_2_0" index="0" speed="8.00" length="5.93" shape="-401.60,-192.80 -401.05,-196.65 -400.00,-198.40"/>
    </edge>
    <edge id=":gneJ103_12" function="internal">
        <lane id=":gneJ103_12_0" index="0" speed="8.00" length="8.26" shape="-400.00,-198.40 -399.40,-199.40 -396.65,-201.05 -392.80,-201.60"/>
    </edge>
    <edge id=":gneJ103_3" function="internal">
        <lane id=":gneJ103_3_0" index="0" speed="6.51" length="9.03" shape="-392.80,-198.40 -395.25,-198.05 -397.00,-197.00 -398.05,-195.25 -398.40,-192.80"/>
    </edge>
    <edge id=":gneJ103_4" function="internal">
        <lane id=":gneJ103_4_0" index="0" speed="13.89" length="14.40" shape="-392.80,-198.40 -407.20,-198.40"/>
    </edge>
    <edge id=":gneJ103_5" function="internal">
        <lane id=":gneJ103_5_0" index="0" speed="8.00" length="14.19" shape="-392.80,-198.40 -396.65,-198.95 -399.40,-200.60 -401.05,-203.35 -401.60,-207.20"/>
    </edge>
    <edge id=":gneJ103_6" function="internal">
        <lane id=":gneJ103_6_0" index="0" speed="6.51" length="9.03" shape="-398.40,-207.20 -398.05,-204.75 -397.00,-203.00 -395.25,-201.95 -392.80,-201.60"/>
    </edge>
    <edge id=":gneJ103_7" function="internal">
        <lane id=":gneJ103_7_0" index="0" speed="13.89" length="14.40" shape="-398.40,-207.20 -398.40,-192.80"/>
    </edge>
    <edge id=":gneJ103_8" function="internal">
        <lane id=":gneJ103_8_0" index="0" speed="8.00" length="5.93" shape="-398.40,-207.20 -398.95,-203.35 -400.00,-201.60"/>
    </edge>
    <edge id=":gneJ103_13" function="internal">
        <lane id=":gneJ103_13_0" index="0" speed="8.00" length="8.26" shape="-400.00,-201.60 -400.60,-200.60 -403.35,-198.95 -407.20,-198.40"/>
    </edge>
    <edge id=":gneJ103_9" function="internal">
        <lane id=":gneJ103_9_0" index="0" speed="6.51" length="9.03" shape="-407.20,-201.60 -404.75,-201.95 -403.00,-203.00 -401.95,-204.75 -401.60,-207.20"/>
    </edge>
    <edge id=":gneJ103_10" function="internal">
        <lane id=":gneJ103_10_0" index="0" speed="13.89" length="14.40" shape="-407.20,-201.60 -392.80,-201.60"/>
    </edge>
    <edge id=":gneJ103_11" function="internal">
        <lane id=":gneJ103_11_0" index="0" speed="8.00" length="14.19" shape="-407.20,-201.60 -403.35,-201.05 -400.60,-199.40 -398.95,-196.65 -398.40,-192.80"/>
    </edge>
    <edge id=":gneJ104_0" function="internal">
        <lane id=":gneJ104_0_0" index="0" speed="6.51" length="9.03" shape="-301.60,-192.80 -301.95,-195.25 -303.00,-197.00 -304.75,-198.05 -307.20,-198.40"/>
    </edge>
    <edge id=":gneJ104_1" function="internal">
        <lane id=":gneJ104_1_0" index="0" speed="13.89" length="14.40" shape="-301.60,-192.80 -301.60,-207.20"/>
    </edge>
    <edge id=":gneJ104_2" function="internal">
        <lane id=":gneJ104_2_0" index="0" speed="8.00" length="5.93" shape="-301.60,-192.80 -301.05,-196.65 -300.00,-198.40"/>
    </edge>
    <edge id=":gneJ104_12" function="internal">
        <lane id=":gneJ104_12_0" index="0" speed="8.00" length="8.26" shape="-300.00,-198.40 -299.40,-199.40 -296.65,-201.05 -292.80,-201.60"/>
    </edge>
    <edge id=":gneJ104_3" function="internal">
        <lane id=":gneJ104_3_0" index="0" speed="6.51" length="9.03" shape="-292.80,-198.40 -295.25,-198.05 -297.00,-197.00 -298.05,-195.25 -298.40,-192.80"/>
    </edge>
    <edge id=":gneJ104_4" function="internal">
        <lane id=":gneJ104_4_0" index="0" speed="13.89" length="14.40" shape="-292.80,-198.40 -307.20,-198.40"/>
    </edge>
    <edge id=":gneJ104_5" function="internal">
        <lane id=":gneJ104_5_0" index="0" speed="8.00" length="14.19" shape="-292.80,-198.40 -296.65,-198.95 -299.40,-200.60 -301.05,-203.35 -301.60,-207.20"/>
    </edge>
    <edge id=":gneJ104_6" function="internal">
        <lane id=":gneJ104_6_0" index="0" speed="6.51" length="9.03" shape="-298.40,-207.20 -298.05,-204.75 -297.00,-203.00 -295.25,-201.95 -292.80,-201.60"/>
    </edge>
    <edge id=":gneJ104_7" function="internal">
        <lane id=":gneJ104_7_0" index="0" speed="13.89" length="14.40" shape="-298.40,-207.20 -298.40,-192.80"/>
    </edge>
    <edge id=":gneJ104_8" function="internal">
        <lane id=":gneJ104_8_0" index="0" speed="8.00" length="5.93" shape="-298.40,-207.20 -298.95,-203.35 -300.00,-201.60"/>
    </edge>
    <edge id=":gneJ104_13" function="internal">
        <lane id=":gneJ104_13_0" index="0" speed="8.00" length="8.26" shape="-300.00,-201.60 -300.60,-200.60 -303.35,-198.95 -307.20,-198.40"/>
    </edge>
    <edge id=":gneJ104_9" function="internal">
        <lane id=":gneJ104_9_0" index="0" speed="6.51" length="9.03" shape="-307.20,-201.60 -304.75,-201.95 -303.00,-203.00 -301.95,-204.75 -301.60,-207.20"/>
    </edge>
    <edge id=":gneJ104_10" function="internal">
        <lane id=":gneJ104_10_0" index="0" speed="13.89" length="14.40" shape="-307.20,-201.60 -292.80,-201.60"/>
    </edge>
    <edge id=":gneJ104_11" function="internal">
        <lane id=":gneJ104_11_0" index="0" speed="8.00" length="14.19" shape="-307.20,-201.60 -303.35,-201.05 -300.60,-199.40 -298.95,-196.65 -298.40,-192.80"/>
    </edge>
    <edge id=":gneJ105_0" function="internal">
        <lane id=":gneJ105_0_0" index="0" speed="6.51" length="9.03" shape="-201.60,-192.80 -201.95,-195.25 -203.00,-197.00 -204.75,-198.05 -207.20,-198.40"/>
    </edge>
    <edge id=":gneJ105_1" function="internal">
        <lane id=":gneJ105_1_0" index="0" speed="13.89" length="14.40" shape="-201.60,-192.80 -201.60,-207.20"/>
    </edge>
    <edge id=":gneJ105_2" function="internal">
        <lane id=":gneJ105_2_0" index="0" speed="8.00" length="5.93" shape="-201.60,-192.80 -201.05,-196.65 -200.00,-198.40"/>
    </edge>
    <edge id=":gneJ105_12" function="internal">
        <lane id=":gneJ105_12_0" index="0" speed="8.00" length="8.26" shape="-200.00,-198.40 -199.40,-199.40 -196.65,-201.05 -192.80,-201.60"/>
    </edge>
    <edge id=":gneJ105_3" function="internal">
        <lane id=":gneJ105_3_0" index="0" speed="6.51" length="9.03" shape="-192.80,-198.40 -195.25,-198.05 -197.00,-197.00 -198.05,-195.25 -198.40,-192.80"/>
    </edge>
    <edge id=":gneJ105_4" function="internal">
        <lane id=":gneJ105_4_0" index="0" speed="13.89" length="14.40" shape="-192.80,-198.40 -207.20,-198.40"/>
    </edge>
    <edge id=":gneJ105_5" function="internal">
        <lane id=":gneJ105_5_0" index="0" speed="8.00" length="14.19" shape="-192.80,-198.40 -196.65,-198.95 -199.40,-200.60 -201.05,-203.35 -201.60,-207.20"/>
    </edge>
    <edge id=":gneJ105_6" function="internal">
        <lane id=":gneJ105_6_0" index="0" speed="6.51" length="9.03" shape="-198.40,-207.20 -198.05,-204.75 -197.00,-203.00 -195.25,-201.95 -192.80,-201.60"/>
    </edge>
    <edge id=":gneJ105_7" function="internal">
        <lane id=":gneJ105_7_0" index="0" speed="13.89" length="14.40" shape="-198.40,-207.20 -198.40,-192.80"/>
    </edge>
    <edge id=":gneJ105_8" function="internal">
        <lane id=":gneJ105_8_0" index="0" speed="8.00" length="5.93" shape="-198.40,-207.20 -198.95,-203.35 -200.00,-201.60"/>
    </edge>
    <edge id=":gneJ105_13" function="internal">
        <lane id=":gneJ105_13_0" index="0" speed="8.00" length="8.26" shape="-200.00,-201.60 -200.60,-200.60 -203.35,-198.95 -207.20,-198.40"/>
    </edge>
    <edge id=":gneJ105_9" function="internal">
        <lane id=":gneJ105_9_0" index="0" speed="6.51" length="9.03" shape="-207.20,-201.60 -204.75,-201.95 -203.00,-203.00 -201.95,-204.75 -201.60,-207.20"/>
    </edge>
    <edge id=":gneJ105_10" function="internal">
        <lane id=":gneJ105_10_0" index="0" speed="13.89" length="14.40" shape="-207.20,-201.60 -192.80,-201.60"/>
    </edge>
    <edge id=":gneJ105_11" function="internal">
        <lane id=":gneJ105_11_0" index="0" speed="8.00" length="14.19" shape="-207.20,-201.60 -203.35,-201.05 -200.60,-199.40 -198.95,-196.65 -198.40,-192.80"/>
    </edge>
    <edge id=":gneJ106_0" function="internal">
        <lane id=":gneJ106_0_0" index="0" speed="6.51" length="9.03" shape="-101.60,-192.80 -101.95,-195.25 -103.00,-197.00 -104.75,-198.05 -107.20,-198.40"/>
    </edge>
    <edge id=":gneJ106_1" function="internal">
        <lane id=":gneJ106_1_0" index="0" speed="13.89" length="14.40" shape="-101.60,-192.80 -101.60,-207.20"/>
    </edge>
    <edge id=":gneJ106_2" function="internal">
        <lane id=":gneJ106_2_0" index="0" speed="8.00" length="5.93" shape="-101.60,-192.80 -101.05,-196.65 -100.00,-198.40"/>
    </edge>
    <edge id=":gneJ106_12" function="internal">
        <lane id=":gneJ106_12_0" index="0" speed="8.00" length="8.26" shape="-100.00,-198.40 -99.40,-199.40 -96.65,-201.05 -92.80,-201.60"/>
    </edge>
    <edge id=":gneJ106_3" function="internal">
        <lane id=":gneJ106_3_0" index="0" speed="6.51" length="9.03" shape="-92.80,-198.40 -95.25,-198.05 -97.00,-197.00 -98.05,-195.25 -98.40,-192.80"/>
    </edge>
    <edge id=":gneJ106_4" function="internal">
        <lane id=":gneJ106_4_0" index="0" speed="13.89" length="14.40" shape="-92.80,-198.40 -107.20,-198.40"/>
    </edge>
    <edge id=":gneJ106_5" function="internal">
        <lane id=":gneJ106_5_0" index="0" speed="8.00" length="14.19" shape="-92.80,-198.40 -96.65,-198.95 -99.40,-200.60 -101.05,-203.35 -101.60,-207.20"/>
    </edge>
    <edge id=":gneJ106_6" function="internal">
        <lane id=":gneJ106_6_0" index="0" speed="6.51" length="9.03" shape="-98.40,-207.20 -98.05,-204.75 -97.00,-203.00 -95.25,-201.95 -92.80,-201.60"/>
    </edge>
    <edge id=":gneJ106_7" function="internal">
        <lane id=":gneJ106_7_0" index="0" speed="13.89" length="14.40" shape="-98.40,-207.20 -98.40,-192.80"/>
    </edge>
    <edge id=":gneJ106_8" function="internal">
        <lane id=":gneJ106_8_0" index="0" speed="8.00" length="5.93" shape="-98.40,-207.20 -98.95,-203.35 -100.00,-201.60"/>
    </edge>
    <edge id=":gneJ106_13" function="internal">
        <lane id=":gneJ106_13_0" index="0" speed="8.00" length="8.26" shape="-100.00,-201.60 -100.60,-200.60 -103.35,-198.95 -107.20,-198.40"/>
    </edge>
    <edge id=":gneJ106_9" function="internal">
        <lane id=":gneJ106_9_0" index="0" speed="6.51" length="9.03" shape="-107.20,-201.60 -104.75,-201.95 -103.00,-203.00 -101.95,-204.75 -101.60,-207.20"/>
    </edge>
    <edge id=":gneJ106_10" function="internal">
        <lane id=":gneJ106_10_0" index="0" speed="13.89" length="14.40" shape="-107.20,-201.60 -92.80,-201.60"/>
    </edge>
    <edge id=":gneJ106_11" function="internal">
        <lane id=":gneJ106_11_0" index="0" speed="8.00" length="14.19" shape="-107.20,-201.60 -103.35,-201.05 -100.60,-199.40 -98.95,-196.65 -98.40,-192.80"/>
    </edge>
    <edge id=":gneJ107_0" function="internal">
        <lane id=":gneJ107_0_0" index="0" speed="6.51" length="9.03" shape="-1.60,-192.80 -1.95,-195.25 -3.00,-197.00 -4.75,-198.05 -7.20,-198.40"/>
    </edge>
    <edge id=":gneJ107_1" function="internal">
        <lane id=":gneJ107_1_0" index="0" speed="13.89" length="14.40" shape="-1.60,-192.80 -1.60,-207.20"/>
    </edge>
    <edge id=":gneJ107_2" function="internal">
        <lane id=":gneJ107_2_0" index="0" speed="8.00" length="5.93" shape="-1.60,-192.80 -1.05,-196.65 0.00,-198.40"/>
    </edge>
    <edge id=":gneJ107_12" function="internal">
        <lane id=":gneJ107_12_0" index="0" speed="8.00" length="8.26" shape="0.00,-198.40 0.60,-199.40 3.35,-201.05 7.20,-201.60"/>
    </edge>
    <edge id=":gneJ107_3" function="internal">
        <lane id=":gneJ107_3_0" index="0" speed="6.51" length="9.03" shape="7.20,-198.40 4.75,-198.05 3.00,-197.00 1.95,-195.25 1.60,-192.80"/>
    </edge>
    <edge id=":gneJ107_4" function="internal">
        <lane id=":gneJ107_4_0" index="0" speed="13.89" length="14.40" shape="7.20,-198.40 -7.20,-198.40"/>
    </edge>
    <edge id=":gneJ107_5" function="internal">
        <lane id=":gneJ107_5_0" index="0" speed="8.00" length="14.19" shape="7.20,-198.40 3.35,-198.95 0.60,-200.60 -1.05,-203.35 -1.60,-207.20"/>
    </edge>
    <edge id=":gneJ107_6" function="internal">
        <lane id=":gneJ107_6_0" index="0" speed="6.51" length="9.03" shape="1.60,-207.20 1.95,-204.75 3.00,-203.00 4.75,-201.95 7.20,-201.60"/>
    </edge>
    <edge id=":gneJ107_7" function="internal">
        <lane id=":gneJ107_7_0" index="0" speed="13.89" length="14.40" shape="1.60,-207.20 1.60,-192.80"/>
    </edge>
    <edge id=":gneJ107_8" function="internal">
        <lane id=":gneJ107_8_0" index="0" speed="8.00" length="5.93" shape="1.60,-207.20 1.05,-203.35 -0.00,-201.60"/>
    </edge>
    <edge id=":gneJ107_13" function="internal">
        <lane id=":gneJ107_13_0" index="0" speed="8.00" length="8.26" shape="-0.00,-201.60 -0.60,-200.60 -3.35,-198.95 -7.20,-198.40"/>
    </edge>
    <edge id=":gneJ107_9" function="internal">
        <lane id=":gneJ107_9_0" index="0" speed="6.51" length="9.03" shape="-7.20,-201.60 -4.75,-201.95 -3.00,-203.00 -1.95,-204.75 -1.60,-207.20"/>
    </edge>
    <edge id=":gneJ107_10" function="internal">
        <lane id=":gneJ107_10_0" index="0" speed="13.89" length="14.40" shape="-7.20,-201.60 7.20,-201.60"/>
    </edge>
    <edge id=":gneJ107_11" function="internal">
        <lane id=":gneJ107_11_0" index="0" speed="8.00" length="14.19" shape="-7.20,-201.60 -3.35,-201.05 -0.60,-199.40 1.05,-196.65 1.60,-192.80"/>
    </edge>
    <edge id=":gneJ108_0" function="internal">
        <lane id=":gneJ108_0_0" index="0" speed="6.51" length="9.03" shape="98.40,-192.80 98.05,-195.25 97.00,-197.00 95.25,-198.05 92.80,-198.40"/>
    </edge>
    <edge id=":gneJ108_1" function="internal">
        <lane id=":gneJ108_1_0" index="0" speed="13.89" length="14.40" shape="98.40,-192.80 98.40,-207.20"/>
    </edge>
    <edge id=":gneJ108_2" function="internal">
        <lane id=":gneJ108_2_0" index="0" speed="8.00" length="5.93" shape="98.40,-192.80 98.95,-196.65 100.00,-198.40"/>
    </edge>
    <edge id=":gneJ108_12" function="internal">
        <lane id=":gneJ108_12_0" index="0" speed="8.00" length="8.26" shape="100.00,-198.40 100.60,-199.40 103.35,-201.05 107.20,-201.60"/>
    </edge>
    <edge id=":gneJ108_3" function="internal">
        <lane id=":gneJ108_3_0" index="0" speed="6.51" length="9.03" shape="107.20,-198.40 104.75,-198.05 103.00,-197.00 101.95,-195.25 101.60,-192.80"/>
    </edge>
    <edge id=":gneJ108_4" function="internal">
        <lane id=":gneJ108_4_0" index="0" speed="13.89" length="14.40" shape="107.20,-198.40 92.80,-198.40"/>
    </edge>
    <edge id=":gneJ108_5" function="internal">
        <lane id=":gneJ108_5_0" index="0" speed="8.00" length="14.19" shape="107.20,-198.40 103.35,-198.95 100.60,-200.60 98.95,-203.35 98.40,-207.20"/>
    </edge>
    <edge id=":gneJ108_6" function="internal">
        <lane id=":gneJ108_6_0" index="0" speed="6.51" length="9.03" shape="101.60,-207.20 101.95,-204.75 103.00,-203.00 104.75,-201.95 107.20,-201.60"/>
    </edge>
    <edge id=":gneJ108_7" function="internal">
        <lane id=":gneJ108_7_0" index="0" speed="13.89" length="14.40" shape="101.60,-207.20 101.60,-192.80"/>
    </edge>
    <edge id=":gneJ108_8" function="internal">
        <lane id=":gneJ108_8_0" index="0" speed="8.00" length="5.93" shape="101.60,-207.20 101.05,-203.35 100.00,-201.60"/>
    </edge>
    <edge id=":gneJ108_13" function="internal">
        <lane id=":gneJ108_13_0" index="0" speed="8.00" length="8.26" shape="100.00,-201.60 99.40,-200.60 96.65,-198.95 92.80,-198.40"/>
    </edge>
    <edge id=":gneJ108_9" function="internal">
        <lane id=":gneJ108_9_0" index="0" speed="6.51" length="9.03" shape="92.80,-201.60 95.25,-201.95 97.00,-203.00 98.05,-204.75 98.40,-207.20"/>
    </edge>
    <edge id=":gneJ108_10" function="internal">
        <lane id=":gneJ108_10_0" index="0" speed="13.89" length="14.40" shape="92.80,-201.60 107.20,-201.60"/>
    </edge>
    <edge id=":gneJ108_11" function="internal">
        <lane id=":gneJ108_11_0" index="0" speed="8.00" length="14.19" shape="92.80,-201.60 96.65,-201.05 99.40,-199.40 101.05,-196.65 101.60,-192.80"/>
    </edge>
    <edge id=":gneJ109_0" function="internal">
        <lane id=":gneJ109_0_0" index="0" speed="6.51" length="9.03" shape="198.40,-192.80 198.05,-195.25 197.00,-197.00 195.25,-198.05 192.80,-198.40"/>
    </edge>
    <edge id=":gneJ109_1" function="internal">
        <lane id=":gneJ109_1_0" index="0" speed="13.89" length="14.40" shape="198.40,-192.80 198.40,-207.20"/>
    </edge>
    <edge id=":gneJ109_2" function="internal">
        <lane id=":gneJ109_2_0" index="0" speed="8.00" length="5.93" shape="198.40,-192.80 198.95,-196.65 200.00,-198.40"/>
    </edge>
    <edge id=":gneJ109_12" function="internal">
        <lane id=":gneJ109_12_0" index="0" speed="8.00" length="8.26" shape="200.00,-198.40 200.60,-199.40 203.35,-201.05 207.20,-201.60"/>
    </edge>
    <edge id=":gneJ109_3" function="internal">
        <lane id=":gneJ109_3_0" index="0" speed="6.51" length="9.03" shape="207.20,-198.40 204.75,-198.05 203.00,-197.00 201.95,-195.25 201.60,-192.80"/>
    </edge>
    <edge id=":gneJ109_4" function="internal">
        <lane id=":gneJ109_4_0" index="0" speed="13.89" length="14.40" shape="207.20,-198.40 192.80,-198.40"/>
    </edge>
    <edge id=":gneJ109_5" function="internal">
        <lane id=":gneJ109_5_0" index="0" speed="8.00" length="14.19" shape="207.20,-198.40 203.35,-198.95 200.60,-200.60 198.95,-203.35 198.40,-207.20"/>
    </edge>
    <edge id=":gneJ109_6" function="internal">
        <lane id=":gneJ109_6_0" index="0" speed="6.51" length="9.03" shape="201.60,-207.20 201.95,-204.75 203.00,-203.00 204.75,-201.95 207.20,-201.60"/>
    </edge>
    <edge id=":gneJ109_7" function="internal">
        <lane id=":gneJ109_7_0" index="0" speed="13.89" length="14.40" shape="201.60,-207.20 201.60,-192.80"/>
    </edge>
    <edge id=":gneJ109_8" function="internal">
        <lane id=":gneJ109_8_0" index="0" speed="8.00" length="5.93" shape="201.60,-207.20 201.05,-203.35 200.00,-201.60"/>
    </edge>
    <edge id=":gneJ109_13" function="internal">
        <lane id=":gneJ109_13_0" index="0" speed="8.00" length="8.26" shape="200.00,-201.60 199.40,-200.60 196.65,-198.95 192.80,-198.40"/>
    </edge>
    <edge id=":gneJ109_9" function="internal">
        <lane id=":gneJ109_9_0" index="0" speed="6.51" length="9.03" shape="192.80,-201.60 195.25,-201.95 197.00,-203.00 198.05,-204.75 198.40,-207.20"/>
    </edge>
    <edge id=":gneJ109_10" function="internal">
        <lane id=":gneJ109_10_0" index="0" speed="13.89" length="14.40" shape="192.80,-201.60 207.20,-201.60"/>
    </edge>
    <edge id=":gneJ109_11" function="internal">
        <lane id=":gneJ109_11_0" index="0" speed="8.00" length="14.19" shape="192.80,-201.60 196.65,-201.05 199.40,-199.40 201.05,-196.65 201.60,-192.80"/>
    </edge>
    <edge id=":gneJ11_0" function="internal">
        <lane id=":gneJ11_0_0" index="0" speed="13.89" length="14.40" shape="-492.80,501.60 -507.20,501.60"/>
    </edge>
    <edge id=":gneJ11_1" function="internal">
        <lane id=":gneJ11_1_0" index="0" speed="8.00" length="5.93" shape="-492.80,501.60 -496.65,501.05 -498.40,500.00"/>
    </edge>
    <edge id=":gneJ11_6" function="internal">
        <lane id=":gneJ11_6_0" index="0" speed="8.00" length="8.26" shape="-498.40,500.00 -499.40,499.40 -501.05,496.65 -501.60,492.80"/>
    </edge>
    <edge id=":gneJ11_2" function="internal">
        <lane id=":gneJ11_2_0" index="0" speed="6.51" length="9.03" shape="-498.40,492.80 -498.05,495.25 -497.00,497.00 -495.25,498.05 -492.80,498.40"/>
    </edge>
    <edge id=":gneJ11_3" function="internal">
        <lane id=":gneJ11_3_0" index="0" speed="8.00" length="14.19" shape="-498.40,492.80 -498.95,496.65 -500.60,499.40 -503.35,501.05 -507.20,501.60"/>
    </edge>
    <edge id=":gneJ11_4" function="internal">