<?xml version="1.0" encoding="UTF-8"?>

<!-- generated on 2021-11-13 1:11:31 by Eclipse SUMO netedit Version 1.9.0
<configuration xmlns:xsi="http://www.w3.org/2001/XMLSchema-instance" xsi:noNamespaceSchemaLocation="http://sumo.dlr.de/xsd/netconvertConfiguration.xsd">

    <input>
        <sumo-net-file value="C:\Program%20Files%20(x86)\Eclipse\Sumo\0811\demo.net.xml"/>
    </input>

    <output>
        <output-file value="C:\Program%20Files%20(x86)\Eclipse\Sumo\0811\demo.net.xml"/>
    </output>

    <processing>
        <geometry.min-radius.fix.railways value="false"/>
        <geometry.max-grade.fix value="false"/>
        <offset.disable-normalization value="true"/>
        <lefthand value="false"/>
    </processing>

    <junctions>
        <no-turnarounds value="true"/>
        <junctions.corner-detail value="5"/>
        <junctions.limit-turn-speed value="5.5"/>
        <rectangular-lane-cut value="false"/>
    </junctions>

    <pedestrian>
        <walkingareas value="false"/>
    </pedestrian>

    <report>
        <aggregate-warnings value="5"/>
    </report>

</configuration>
-->

<net version="1.9" junctionCornerDetail="5" limitTurnSpeed="5.50" xmlns:xsi="http://www.w3.org/2001/XMLSchema-instance" xsi:noNamespaceSchemaLocation="http://sumo.dlr.de/xsd/net_file.xsd">

    <location netOffset="0.00,0.00" convBoundary="-700.00,-700.00,500.00,500.00" origBoundary="-10000000000.00,-10000000000.00,10000000000.00,10000000000.00" projParameter="!"/>

    <edge id=":gneJ10_0" function="internal">
        <lane id=":gneJ10_0_0" index="0" speed="13.89" length="33.60" shape="-583.20,511.20 -616.80,511.20"/>
        <lane id=":gneJ10_0_1" index="1" speed="13.89" length="33.60" shape="-583.20,508.00 -616.80,508.00"/>
        <lane id=":gneJ10_0_2" index="2" speed="13.89" length="33.60" shape="-583.20,504.80 -616.80,504.80"/>
        <lane id=":gneJ10_0_3" index="3" speed="13.89" length="33.60" shape="-583.20,501.60 -616.80,501.60"/>
    </edge>
    <edge id=":gneJ10_4" function="internal">
        <lane id=":gneJ10_4_0" index="0" speed="11.84" length="10.51" shape="-583.20,501.60 -592.65,500.45 -593.53,500.00"/>
        <lane id=":gneJ10_4_1" index="1" speed="11.36" length="9.01" shape="-583.20,501.60 -591.25,500.45 -592.00,500.00"/>
    </edge>
    <edge id=":gneJ10_17" function="internal">
        <lane id=":gneJ10_17_0" index="0" speed="11.84" length="21.79" shape="-593.53,500.00 -599.40,497.00 -603.45,491.25 -604.80,483.20"/>
    </edge>
    <edge id=":gneJ10_18" function="internal">
        <lane id=":gneJ10_18_0" index="0" speed="11.36" length="20.67" shape="-592.00,500.00 -597.00,497.00 -600.45,491.25 -601.60,483.20"/>
    </edge>
    <edge id=":gneJ10_6" function="internal">
        <lane id=":gneJ10_6_0" index="0" speed="6.51" length="9.03" shape="-588.80,483.20 -588.45,485.65 -587.40,487.40 -585.65,488.45 -583.20,488.80"/>
        <lane id=":gneJ10_6_1" index="1" speed="8.00" length="14.19" shape="-592.00,483.20 -591.45,487.05 -589.80,489.80 -587.05,491.45 -583.20,492.00"/>
        <lane id=":gneJ10_6_2" index="2" speed="8.67" length="16.85" shape="-592.00,483.20 -591.45,488.45 -589.80,492.20 -587.05,494.45 -583.20,495.20"/>
    </edge>
    <edge id=":gneJ10_9" function="internal">
        <lane id=":gneJ10_9_0" index="0" speed="12.28" length="34.84" shape="-595.20,483.20 -596.55,492.65 -600.60,499.40 -607.35,503.45 -616.80,504.80"/>
        <lane id=":gneJ10_9_1" index="1" speed="11.36" length="29.67" shape="-598.40,483.20 -599.55,491.25 -603.00,497.00 -608.75,500.45 -616.80,501.60"/>
    </edge>
    <edge id=":gneJ10_11" function="internal">
        <lane id=":gneJ10_11_0" index="0" speed="6.51" length="9.03" shape="-616.80,488.80 -614.35,488.45 -612.60,487.40 -611.55,485.65 -611.20,483.20"/>
        <lane id=":gneJ10_11_1" index="1" speed="7.33" length="11.73" shape="-616.80,488.80 -612.95,488.45 -610.20,487.40 -608.55,485.65 -608.00,483.20"/>
    </edge>
    <edge id=":gneJ10_13" function="internal">
        <lane id=":gneJ10_13_0" index="0" speed="13.89" length="33.60" shape="-616.80,488.80 -583.20,488.80"/>
        <lane id=":gneJ10_13_1" index="1" speed="13.89" length="33.60" shape="-616.80,492.00 -583.20,492.00"/>
        <lane id=":gneJ10_13_2" index="2" speed="13.89" length="33.60" shape="-616.80,495.20 -583.20,495.20"/>
        <lane id=":gneJ10_13_3" index="3" speed="13.89" length="33.60" shape="-616.80,498.40 -583.20,498.40"/>
    </edge>
    <edge id=":gneJ100_0" function="internal">
        <lane id=":gneJ100_0_0" index="0" speed="13.89" length="33.60" shape="-711.20,-183.20 -711.20,-216.80"/>
        <lane id=":gneJ100_0_1" index="1" speed="13.89" length="33.60" shape="-708.00,-183.20 -708.00,-216.80"/>
        <lane id=":gneJ100_0_2" index="2" speed="13.89" length="33.60" shape="-704.80,-183.20 -704.80,-216.80"/>
        <lane id=":gneJ100_0_3" index="3" speed="13.89" length="33.60" shape="-701.60,-183.20 -701.60,-216.80"/>
    </edge>
    <edge id=":gneJ100_4" function="internal">
        <lane id=":gneJ100_4_0" index="0" speed="11.84" length="10.51" shape="-701.60,-183.20 -700.45,-192.65 -700.00,-193.53"/>
        <lane id=":gneJ100_4_1" index="1" speed="11.36" length="9.01" shape="-701.60,-183.20 -700.45,-191.25 -700.00,-192.00"/>
    </edge>
    <edge id=":gneJ100_17" function="internal">
        <lane id=":gneJ100_17_0" index="0" speed="11.84" length="21.79" shape="-700.00,-193.53 -697.00,-199.40 -691.25,-203.45 -683.20,-204.80"/>
    </edge>
    <edge id=":gneJ100_18" function="internal">
        <lane id=":gneJ100_18_0" index="0" speed="11.36" length="20.67" shape="-700.00,-192.00 -697.00,-197.00 -691.25,-200.45 -683.20,-201.60"/>
    </edge>
    <edge id=":gneJ100_6" function="internal">
        <lane id=":gneJ100_6_0" index="0" speed="6.51" length="9.03" shape="-683.20,-188.80 -685.65,-188.45 -687.40,-187.40 -688.45,-185.65 -688.80,-183.20"/>
        <lane id=":gneJ100_6_1" index="1" speed="8.00" length="14.19" shape="-683.20,-192.00 -687.05,-191.45 -689.80,-189.80 -691.45,-187.05 -692.00,-183.20"/>
        <lane id=":gneJ100_6_2" index="2" speed="8.67" length="16.85" shape="-683.20,-192.00 -688.45,-191.45 -692.20,-189.80 -694.45,-187.05 -695.20,-183.20"/>
    </edge>
    <edge id=":gneJ100_9" function="internal">
        <lane id=":gneJ100_9_0" index="0" speed="12.28" length="34.84" shape="-683.20,-195.20 -692.65,-196.55 -699.40,-200.60 -703.45,-207.35 -704.80,-216.80"/>
        <lane id=":gneJ100_9_1" index="1" speed="11.36" length="29.67" shape="-683.20,-198.40 -691.25,-199.55 -697.00,-203.00 -700.45,-208.75 -701.60,-216.80"/>
    </edge>
    <edge id=":gneJ100_11" function="internal">
        <lane id=":gneJ100_11_0" index="0" speed="6.51" length="9.03" shape="-688.80,-216.80 -688.45,-214.35 -687.40,-212.60 -685.65,-211.55 -683.20,-211.20"/>
        <lane id=":gneJ100_11_1" index="1" speed="7.33" length="11.73" shape="-688.80,-216.80 -688.45,-212.95 -687.40,-210.20 -685.65,-208.55 -683.20,-208.00"/>
    </edge>
    <edge id=":gneJ100_13" function="internal">
        <lane id=":gneJ100_13_0" index="0" speed="13.89" length="33.60" shape="-688.80,-216.80 -688.80,-183.20"/>
        <lane id=":gneJ100_13_1" index="1" speed="13.89" length="33.60" shape="-692.00,-216.80 -692.00,-183.20"/>
        <lane id=":gneJ100_13_2" index="2" speed="13.89" length="33.60" shape="-695.20,-216.80 -695.20,-183.20"/>
        <lane id=":gneJ100_13_3" index="3" speed="13.89" length="33.60" shape="-698.40,-216.80 -698.40,-183.20"/>
    </edge>
    <edge id=":gneJ101_0" function="internal">
        <lane id=":gneJ101_0_0" index="0" speed="6.51" length="9.03" shape="-611.20,-183.20 -611.55,-185.65 -612.60,-187.40 -614.35,-188.45 -616.80,-188.80"/>
    </edge>
    <edge id=":gneJ101_1" function="internal">
        <lane id=":gneJ101_1_0" index="0" speed="13.89" length="33.60" shape="-611.20,-183.20 -611.20,-216.80"/>
        <lane id=":gneJ101_1_1" index="1" speed="13.89" length="33.60" shape="-608.00,-183.20 -608.00,-216.80"/>
        <lane id=":gneJ101_1_2" index="2" speed="13.89" length="33.60" shape="-604.80,-183.20 -604.80,-216.80"/>
        <lane id=":gneJ101_1_3" index="3" speed="13.89" length="33.60" shape="-601.60,-183.20 -601.60,-216.80"/>
    </edge>
    <edge id=":gneJ101_5" function="internal">
        <lane id=":gneJ101_5_0" index="0" speed="11.36" length="9.01" shape="-601.60,-183.20 -600.45,-191.25 -600.00,-192.00"/>
    </edge>
    <edge id=":gneJ101_26" function="internal">
        <lane id=":gneJ101_26_0" index="0" speed="11.36" length="20.67" shape="-600.00,-192.00 -597.00,-197.00 -591.25,-200.45 -583.20,-201.60"/>
    </edge>
    <edge id=":gneJ101_6" function="internal">
        <lane id=":gneJ101_6_0" index="0" speed="6.51" length="9.03" shape="-583.20,-188.80 -585.65,-188.45 -587.40,-187.40 -588.45,-185.65 -588.80,-183.20"/>
        <lane id=":gneJ101_6_1" index="1" speed="8.00" length="14.19" shape="-583.20,-192.00 -587.05,-191.45 -589.80,-189.80 -591.45,-187.05 -592.00,-183.20"/>
    </edge>
    <edge id=":gneJ101_8" function="internal">
        <lane id=":gneJ101_8_0" index="0" speed="13.89" length="33.67" shape="-583.20,-192.00 -616.80,-192.00"/>
        <lane id=":gneJ101_8_1" index="1" speed="13.89" length="33.67" shape="-583.20,-195.20 -616.80,-195.20"/>
        <lane id=":gneJ101_8_2" index="2" speed="13.89" length="33.67" shape="-583.20,-195.20 -593.20,-195.70 -600.00,-196.80 -606.80,-197.90 -616.80,-198.40"/>
    </edge>
    <edge id=":gneJ101_11" function="internal">
        <lane id=":gneJ101_11_0" index="0" speed="12.28" length="18.56" shape="-583.20,-195.20 -592.65,-196.55 -599.40,-200.60 -599.99,-201.58"/>
        <lane id=":gneJ101_11_1" index="1" speed="11.36" length="9.94" shape="-583.20,-198.40 -591.25,-199.55 -592.80,-200.48"/>
    </edge>
    <edge id=":gneJ101_27" function="internal">
        <lane id=":gneJ101_27_0" index="0" speed="12.28" length="16.28" shape="-599.99,-201.58 -603.45,-207.35 -604.80,-216.80"/>
    </edge>
    <edge id=":gneJ101_28" function="internal">
        <lane id=":gneJ101_28_0" index="0" speed="11.36" length="19.74" shape="-592.80,-200.48 -597.00,-203.00 -600.45,-208.75 -601.60,-216.80"/>
    </edge>
    <edge id=":gneJ101_13" function="internal">
        <lane id=":gneJ101_13_0" index="0" speed="6.51" length="9.03" shape="-588.80,-216.80 -588.45,-214.35 -587.40,-212.60 -585.65,-211.55 -583.20,-211.20"/>
    </edge>
    <edge id=":gneJ101_14" function="internal">
        <lane id=":gneJ101_14_0" index="0" speed="13.89" length="33.60" shape="-588.80,-216.80 -588.80,-183.20"/>
        <lane id=":gneJ101_14_1" index="1" speed="13.89" length="33.60" shape="-592.00,-216.80 -592.00,-183.20"/>
        <lane id=":gneJ101_14_2" index="2" speed="13.89" length="33.60" shape="-595.20,-216.80 -595.20,-183.20"/>
        <lane id=":gneJ101_14_3" index="3" speed="13.89" length="33.60" shape="-598.40,-216.80 -598.40,-183.20"/>
    </edge>
    <edge id=":gneJ101_18" function="internal">
        <lane id=":gneJ101_18_0" index="0" speed="11.36" length="9.01" shape="-598.40,-216.80 -599.55,-208.75 -600.00,-208.00"/>
    </edge>
    <edge id=":gneJ101_29" function="internal">
        <lane id=":gneJ101_29_0" index="0" speed="11.36" length="20.67" shape="-600.00,-208.00 -603.00,-203.00 -608.75,-199.55 -616.80,-198.40"/>
    </edge>
    <edge id=":gneJ101_19" function="internal">
        <lane id=":gneJ101_19_0" index="0" speed="6.51" length="9.03" shape="-616.80,-211.20 -614.35,-211.55 -612.60,-212.60 -611.55,-214.35 -611.20,-216.80"/>
        <lane id=":gneJ101_19_1" index="1" speed="8.00" length="14.19" shape="-616.80,-208.00 -612.95,-208.55 -610.20,-210.20 -608.55,-212.95 -608.00,-216.80"/>
    </edge>
    <edge id=":gneJ101_21" function="internal">
        <lane id=":gneJ101_21_0" index="0" speed="13.89" length="33.67" shape="-616.80,-208.00 -583.20,-208.00"/>
        <lane id=":gneJ101_21_1" index="1" speed="13.89" length="33.67" shape="-616.80,-204.80 -583.20,-204.80"/>
        <lane id=":gneJ101_21_2" index="2" speed="13.89" length="33.67" shape="-616.80,-204.80 -606.80,-204.30 -600.00,-203.20 -593.20,-202.10 -583.20,-201.60"/>
    </edge>
    <edge id=":gneJ101_24" function="internal">
        <lane id=":gneJ101_24_0" index="0" speed="12.28" length="18.56" shape="-616.80,-204.80 -607.35,-203.45 -600.60,-199.40 -600.01,-198.42"/>
        <lane id=":gneJ101_24_1" index="1" speed="11.36" length="9.94" shape="-616.80,-201.60 -608.75,-200.45 -607.20,-199.52"/>
    </edge>
    <edge id=":gneJ101_30" function="internal">
        <lane id=":gneJ101_30_0" index="0" speed="12.28" length="16.28" shape="-600.01,-198.42 -596.55,-192.65 -595.20,-183.20"/>
    </edge>
    <edge id=":gneJ101_31" function="internal">
        <lane id=":gneJ101_31_0" index="0" speed="11.36" length="19.74" shape="-607.20,-199.52 -603.00,-197.00 -599.55,-191.25 -598.40,-183.20"/>
    </edge>
    <edge id=":gneJ102_0" function="internal">
        <lane id=":gneJ102_0_0" index="0" speed="6.51" length="9.03" shape="-511.20,-183.20 -511.55,-185.65 -512.60,-187.40 -514.35,-188.45 -516.80,-188.80"/>
    </edge>
    <edge id=":gneJ102_1" function="internal">
        <lane id=":gneJ102_1_0" index="0" speed="13.89" length="33.60" shape="-511.20,-183.20 -511.20,-216.80"/>
        <lane id=":gneJ102_1_1" index="1" speed="13.89" length="33.60" shape="-508.00,-183.20 -508.00,-216.80"/>
        <lane id=":gneJ102_1_2" index="2" speed="13.89" length="33.60" shape="-504.80,-183.20 -504.80,-216.80"/>
        <lane id=":gneJ102_1_3" index="3" speed="13.89" length="33.60" shape="-501.60,-183.20 -501.60,-216.80"/>
    </edge>
    <edge id=":gneJ102_5" function="internal">
        <lane id=":gneJ102_5_0" index="0" speed="11.36" length="9.01" shape="-501.60,-183.20 -500.45,-191.25 -500.00,-192.00"/>
    </edge>
    <edge id=":gneJ102_26" function="internal">
        <lane id=":gneJ102_26_0" index="0" speed="11.36" length="20.67" shape="-500.00,-192.00 -497.00,-197.00 -491.25,-200.45 -483.20,-201.60"/>
    </edge>
    <edge id=":gneJ102_6" function="internal">
        <lane id=":gneJ102_6_0" index="0" speed="6.51" length="9.03" shape="-483.20,-188.80 -485.65,-188.45 -487.40,-187.40 -488.45,-185.65 -488.80,-183.20"/>
        <lane id=":gneJ102_6_1" index="1" speed="8.00" length="14.19" shape="-483.20,-192.00 -487.05,-191.45 -489.80,-189.80 -491.45,-187.05 -492.00,-183.20"/>
    </edge>
    <edge id=":gneJ102_8" function="internal">
        <lane id=":gneJ102_8_0" index="0" speed="13.89" length="33.67" shape="-483.20,-192.00 -516.80,-192.00"/>
        <lane id=":gneJ102_8_1" index="1" speed="13.89" length="33.67" shape="-483.20,-195.20 -516.80,-195.20"/>
        <lane id=":gneJ102_8_2" index="2" speed="13.89" length="33.67" shape="-483.20,-195.20 -493.20,-195.70 -500.00,-196.80 -506.80,-197.90 -516.80,-198.40"/>
    </edge>
    <edge id=":gneJ102_11" function="internal">
        <lane id=":gneJ102_11_0" index="0" speed="12.28" length="18.56" shape="-483.20,-195.20 -492.65,-196.55 -499.40,-200.60 -499.99,-201.58"/>
        <lane id=":gneJ102_11_1" index="1" speed="11.36" length="9.94" shape="-483.20,-198.40 -491.25,-199.55 -492.80,-200.48"/>
    </edge>
    <edge id=":gneJ102_27" function="internal">
        <lane id=":gneJ102_27_0" index="0" speed="12.28" length="16.28" shape="-499.99,-201.58 -503.45,-207.35 -504.80,-216.80"/>
    </edge>
    <edge id=":gneJ102_28" function="internal">
        <lane id=":gneJ102_28_0" index="0" speed="11.36" length="19.74" shape="-492.80,-200.48 -497.00,-203.00 -500.45,-208.75 -501.60,-216.80"/>
    </edge>
    <edge id=":gneJ102_13" function="internal">
        <lane id=":gneJ102_13_0" index="0" speed="6.51" length="9.03" shape="-488.80,-216.80 -488.45,-214.35 -487.40,-212.60 -485.65,-211.55 -483.20,-211.20"/>
    </edge>
    <edge id=":gneJ102_14" function="internal">
        <lane id=":gneJ102_14_0" index="0" speed="13.89" length="33.60" shape="-488.80,-216.80 -488.80,-183.20"/>
        <lane id=":gneJ102_14_1" index="1" speed="13.89" length="33.60" shape="-492.00,-216.80 -492.00,-183.20"/>
        <lane id=":gneJ102_14_2" index="2" speed="13.89" length="33.60" shape="-495.20,-216.80 -495.20,-183.20"/>
        <lane id=":gneJ102_14_3" index="3" speed="13.89" length="33.60" shape="-498.40,-216.80 -498.40,-183.20"/>
    </edge>
    <edge id=":gneJ102_18" function="internal">
        <lane id=":gneJ102_18_0" index="0" speed="11.36" length="9.01" shape="-498.40,-216.80 -499.55,-208.75 -500.00,-208.00"/>
    </edge>
    <edge id=":gneJ102_29" function="internal">
        <lane id=":gneJ102_29_0" index="0" speed="11.36" length="20.67" shape="-500.00,-208.00 -503.00,-203.00 -508.75,-199.55 -516.80,-198.40"/>
    </edge>
    <edge id=":gneJ102_19" function="internal">
        <lane id=":gneJ102_19_0" index="0" speed="6.51" length="9.03" shape="-516.80,-211.20 -514.35,-211.55 -512.60,-212.60 -511.55,-214.35 -511.20,-216.80"/>
        <lane id=":gneJ102_19_1" index="1" speed="8.00" length="14.19" shape="-516.80,-208.00 -512.95,-208.55 -510.20,-210.20 -508.55,-212.95 -508.00,-216.80"/>
    </edge>
    <edge id=":gneJ102_21" function="internal">
        <lane id=":gneJ102_21_0" index="0" speed="13.89" length="33.67" shape="-516.80,-208.00 -483.20,-208.00"/>
        <lane id=":gneJ102_21_1" index="1" speed="13.89" length="33.67" shape="-516.80,-204.80 -483.20,-204.80"/>
        <lane id=":gneJ102_21_2" index="2" speed="13.89" length="33.67" shape="-516.80,-204.80 -506.80,-204.30 -500.00,-203.20 -493.20,-202.10 -483.20,-201.60"/>
    </edge>
    <edge id=":gneJ102_24" function="internal">
        <lane id=":gneJ102_24_0" index="0" speed="12.28" length="18.56" shape="-516.80,-204.80 -507.35,-203.45 -500.60,-199.40 -500.01,-198.42"/>
        <lane id=":gneJ102_24_1" index="1" speed="11.36" length="9.94" shape="-516.80,-201.60 -508.75,-200.45 -507.20,-199.52"/>
    </edge>
    <edge id=":gneJ102_30" function="internal">
        <lane id=":gneJ102_30_0" index="0" speed="12.28" length="16.28" shape="-500.01,-198.42 -496.55,-192.65 -495.20,-183.20"/>
    </edge>
    <edge id=":gneJ102_31" function="internal">
        <lane id=":gneJ102_31_0" index="0" speed="11.36" length="19.74" shape="-507.20,-199.52 -503.00,-197.00 -499.55,-191.25 -498.40,-183.20"/>
    </edge>
    <edge id=":gneJ103_0" function="internal">
        <lane id=":gneJ103_0_0" index="0" speed="6.51" length="9.03" shape="-411.20,-183.20 -411.55,-185.65 -412.60,-187.40 -414.35,-188.45 -416.80,-188.80"/>
    </edge>
    <edge id=":gneJ103_1" function="internal">
        <lane id=":gneJ103_1_0" index="0" speed="13.89" length="33.60" shape="-411.20,-183.20 -411.20,-216.80"/>
        <lane id=":gneJ103_1_1" index="1" speed="13.89" length="33.60" shape="-408.00,-183.20 -408.00,-216.80"/>
        <lane id=":gneJ103_1_2" index="2" speed="13.89" length="33.60" shape="-404.80,-183.20 -404.80,-216.80"/>
        <lane id=":gneJ103_1_3" index="3" speed="13.89" length="33.60" shape="-401.60,-183.20 -401.60,-216.80"/>
    </edge>
    <edge id=":gneJ103_5" function="internal">
        <lane id=":gneJ103_5_0" index="0" speed="11.36" length="9.01" shape="-401.60,-183.20 -400.45,-191.25 -400.00,-192.00"/>
    </edge>
    <edge id=":gneJ103_26" function="internal">
        <lane id=":gneJ103_26_0" index="0" speed="11.36" length="20.67" shape="-400.00,-192.00 -397.00,-197.00 -391.25,-200.45 -383.20,-201.60"/>
    </edge>
    <edge id=":gneJ103_6" function="internal">
        <lane id=":gneJ103_6_0" index="0" speed="6.51" length="9.03" shape="-383.20,-188.80 -385.65,-188.45 -387.40,-187.40 -388.45,-185.65 -388.80,-183.20"/>
        <lane id=":gneJ103_6_1" index="1" speed="8.00" length="14.19" shape="-383.20,-192.00 -387.05,-191.45 -389.80,-189.80 -391.45,-187.05 -392.00,-183.20"/>
    </edge>
    <edge id=":gneJ103_8" function="internal">
        <lane id=":gneJ103_8_0" index="0" speed="13.89" length="33.67" shape="-383.20,-192.00 -416.80,-192.00"/>
        <lane id=":gneJ103_8_1" index="1" speed="13.89" length="33.67" shape="-383.20,-195.20 -416.80,-195.20"/>
        <lane id=":gneJ103_8_2" index="2" speed="13.89" length="33.67" shape="-383.20,-195.20 -393.20,-195.70 -400.00,-196.80 -406.80,-197.90 -416.80,-198.40"/>
    </edge>
    <edge id=":gneJ103_11" function="internal">
        <lane id=":gneJ103_11_0" index="0" speed="12.28" length="18.56" shape="-383.20,-195.20 -392.65,-196.55 -399.40,-200.60 -399.99,-201.58"/>
        <lane id=":gneJ103_11_1" index="1" speed="11.36" length="9.94" shape="-383.20,-198.40 -391.25,-199.55 -392.80,-200.48"/>
    </edge>
    <edge id=":gneJ103_27" function="internal">
        <lane id=":gneJ103_27_0" index="0" speed="12.28" length="16.28" shape="-399.99,-201.58 -403.45,-207.35 -404.80,-216.80"/>
    </edge>
    <edge id=":gneJ103_28" function="internal">
        <lane id=":gneJ103_28_0" index="0" speed="11.36" length="19.74" shape="-392.80,-200.48 -397.00,-203.00 -400.45,-208.75 -401.60,-216.80"/>
    </edge>
    <edge id=":gneJ103_13" function="internal">
        <lane id=":gneJ103_13_0" index="0" speed="6.51" length="9.03" shape="-388.80,-216.80 -388.45,-214.35 -387.40,-212.60 -385.65,-211.55 -383.20,-211.20"/>
    </edge>
    <edge id=":gneJ103_14" function="internal">
        <lane id=":gneJ103_14_0" index="0" speed="13.89" length="33.60" shape="-388.80,-216.80 -388.80,-183.20"/>
        <lane id=":gneJ103_14_1" index="1" speed="13.89" length="33.60" shape="-392.00,-216.80 -392.00,-183.20"/>
        <lane id=":gneJ103_14_2" index="2" speed="13.89" length="33.60" shape="-395.20,-216.80 -395.20,-183.20"/>
        <lane id=":gneJ103_14_3" index="3" speed="13.89" length="33.60" shape="-398.40,-216.80 -398.40,-183.20"/>
    </edge>
    <edge id=":gneJ103_18" function="internal">
        <lane id=":gneJ103_18_0" index="0" speed="11.36" length="9.01" shape="-398.40,-216.80 -399.55,-208.75 -400.00,-208.00"/>
    </edge>
    <edge id=":gneJ103_29" function="internal">
        <lane id=":gneJ103_29_0" index="0" speed="11.36" length="20.67" shape="-400.00,-208.00 -403.00,-203.00 -408.75,-199.55 -416.80,-198.40"/>
    </edge>
    <edge id=":gneJ103_19" function="internal">
        <lane id=":gneJ103_19_0" index="0" speed="6.51" length="9.03" shape="-416.80,-211.20 -414.35,-211.55 -412.60,-212.60 -411.55,-214.35 -411.20,-216.80"/>
        <lane id=":gneJ103_19_1" index="1" speed="8.00" length="14.19" shape="-416.80,-208.00 -412.95,-208.55 -410.20,-210.20 -408.55,-212.95 -408.00,-216.80"/>
    </edge>
    <edge id=":gneJ103_21" function="internal">
        <lane id=":gneJ103_21_0" index="0" speed="13.89" length="33.67" shape="-416.80,-208.00 -383.20,-208.00"/>
        <lane id=":gneJ103_21_1" index="1" speed="13.89" length="33.67" shape="-416.80,-204.80 -383.20,-204.80"/>
        <lane id=":gneJ103_21_2" index="2" speed="13.89" length="33.67" shape="-416.80,-204.80 -406.80,-204.30 -400.00,-203.20 -393.20,-202.10 -383.20,-201.60"/>
    </edge>
    <edge id=":gneJ103_24" function="internal">
        <lane id=":gneJ103_24_0" index="0" speed="12.28" length="18.56" shape="-416.80,-204.80 -407.35,-203.45 -400.60,-199.40 -400.01,-198.42"/>
        <lane id=":gneJ103_24_1" index="1" speed="11.36" length="9.94" shape="-416.80,-201.60 -408.75,-200.45 -407.20,-199.52"/>
    </edge>
    <edge id=":gneJ103_30" function="internal">
        <lane id=":gneJ103_30_0" index="0" speed="12.28" length="16.28" shape="-400.01,-198.42 -396.55,-192.65 -395.20,-183.20"/>
    </edge>
    <edge id=":gneJ103_31" function="internal">
        <lane id=":gneJ103_31_0" index="0" speed="11.36" length="19.74" shape="-407.20,-199.52 -403.00,-197.00 -399.55,-191.25 -398.40,-183.20"/>
    </edge>
    <edge id=":gneJ104_0" function="internal">
        <lane id=":gneJ104_0_0" index="0" speed="6.51" length="9.03" shape="-311.20,-183.20 -311.55,-185.65 -312.60,-187.40 -314.35,-188.45 -316.80,-188.80"/>
    </edge>
    <edge id=":gneJ104_1" function="internal">
        <lane id=":gneJ104_1_0" index="0" speed="13.89" length="33.60" shape="-311.20,-183.20 -311.20,-216.80"/>
        <lane id=":gneJ104_1_1" index="1" speed="13.89" length="33.60" shape="-308.00,-183.20 -308.00,-216.80"/>
        <lane id=":gneJ104_1_2" index="2" speed="13.89" length="33.60" shape="-304.80,-183.20 -304.80,-216.80"/>
        <lane id=":gneJ104_1_3" index="3" speed="13.89" length="33.60" shape="-301.60,-183.20 -301.60,-216.80"/>
    </edge>
    <edge id=":gneJ104_5" function="internal">
        <lane id=":gneJ104_5_0" index="0" speed="11.36" length="9.01" shape="-301.60,-183.20 -300.45,-191.25 -300.00,-192.00"/>
    </edge>
    <edge id=":gneJ104_26" function="internal">
        <lane id=":gneJ104_26_0" index="0" speed="11.36" length="20.67" shape="-300.00,-192.00 -297.00,-197.00 -291.25,-200.45 -283.20,-201.60"/>
    </edge>
    <edge id=":gneJ104_6" function="internal">
        <lane id=":gneJ104_6_0" index="0" speed="6.51" length="9.03" shape="-283.20,-188.80 -285.65,-188.45 -287.40,-187.40 -288.45,-185.65 -288.80,-183.20"/>
        <lane id=":gneJ104_6_1" index="1" speed="8.00" length="14.19" shape="-283.20,-192.00 -287.05,-191.45 -289.80,-189.80 -291.45,-187.05 -292.00,-183.20"/>
    </edge>
    <edge id=":gneJ104_8" function="internal">
        <lane id=":gneJ104_8_0" index="0" speed="13.89" length="33.67" shape="-283.20,-192.00 -316.80,-192.00"/>
        <lane id=":gneJ104_8_1" index="1" speed="13.89" length="33.67" shape="-283.20,-195.20 -316.80,-195.20"/>
        <lane id=":gneJ104_8_2" index="2" speed="13.89" length="33.67" shape="-283.20,-195.20 -293.20,-195.70 -300.00,-196.80 -306.80,-197.90 -316.80,-198.40"/>
    </edge>
    <edge id=":gneJ104_11" function="internal">
        <lane id=":gneJ104_11_0" index="0" speed="12.28" length="18.56" shape="-283.20,-195.20 -292.65,-196.55 -299.40,-200.60 -299.99,-201.58"/>
        <lane id=":gneJ104_11_1" index="1" speed="11.36" length="9.94" shape="-283.20,-198.40 -291.25,-199.55 -292.80,-200.48"/>
    </edge>
    <edge id=":gneJ104_27" function="internal">
        <lane id=":gneJ104_27_0" index="0" speed="12.28" length="16.28" shape="-299.99,-201.58 -303.45,-207.35 -304.80,-216.80"/>
    </edge>
    <edge id=":gneJ104_28" function="internal">
        <lane id=":gneJ104_28_0" index="0" speed="11.36" length="19.74" shape="-292.80,-200.48 -297.00,-203.00 -300.45,-208.75 -301.60,-216.80"/>
    </edge>
    <edge id=":gneJ104_13" function="internal">
        <lane id=":gneJ104_13_0" index="0" speed="6.51" length="9.03" shape="-288.80,-216.80 -288.45,-214.35 -287.40,-212.60 -285.65,-211.55 -283.20,-211.20"/>
    </edge>
    <edge id=":gneJ104_14" function="internal">
        <lane id=":gneJ104_14_0" index="0" speed="13.89" length="33.60" shape="-288.80,-216.80 -288.80,-183.20"/>
        <lane id=":gneJ104_14_1" index="1" speed="13.89" length="33.60" shape="-292.00,-216.80 -292.00,-183.20"/>
        <lane id=":gneJ104_14_2" index="2" speed="13.89" length="33.60" shape="-295.20,-216.80 -295.20,-183.20"/>
        <lane id=":gneJ104_14_3" index="3" speed="13.89" length="33.60" shape="-298.40,-216.80 -298.40,-183.20"/>
    </edge>
    <edge id=":gneJ104_18" function="internal">
        <lane id=":gneJ104_18_0" index="0" speed="11.36" length="9.01" shape="-298.40,-216.80 -299.55,-208.75 -300.00,-208.00"/>
    </edge>
    <edge id=":gneJ104_29" function="internal">
        <lane id=":gneJ104_29_0" index="0" speed="11.36" length="20.67" shape="-300.00,-208.00 -303.00,-203.00 -308.75,-199.55 -316.80,-198.40"/>
    </edge>
    <edge id=":gneJ104_19" function="internal">
        <lane id=":gneJ104_19_0" index="0" speed="6.51" length="9.03" shape="-316.80,-211.20 -314.35,-211.55 -312.60,-212.60 -311.55,-214.35 -311.20,-216.80"/>
        <lane id=":gneJ104_19_1" index="1" speed="8.00" length="14.19" shape="-316.80,-208.00 -312.95,-208.55 -310.20,-210.20 -308.55,-212.95 -308.00,-216.80"/>
    </edge>
    <edge id=":gneJ104_21" function="internal">
        <lane id=":gneJ104_21_0" index="0" speed="13.89" length="33.67" shape="-316.80,-208.00 -283.20,-208.00"/>
        <lane id=":gneJ104_21_1" index="1" speed="13.89" length="33.67" shape="-316.80,-204.80 -283.20,-204.80"/>
        <lane id=":gneJ104_21_2" index="2" speed="13.89" length="33.67" shape="-316.80,-204.80 -306.80,-204.30 -300.00,-203.20 -293.20,-202.10 -283.20,-201.60"/>
    </edge>
    <edge id=":gneJ104_24" function="internal">
        <lane id=":gneJ104_24_0" index="0" speed="12.28" length="18.56" shape="-316.80,-204.80 -307.35,-203.45 -300.60,-199.40 -300.01,-198.42"/>
        <lane id=":gneJ104_24_1" index="1" speed="11.36" length="9.94" shape="-316.80,-201.60 -308.75,-200.45 -307.20,-199.52"/>
    </edge>
    <edge id=":gneJ104_30" function="internal">
        <lane id=":gneJ104_30_0" index="0" speed="12.28" length="16.28" shape="-300.01,-198.42 -296.55,-192.65 -295.20,-183.20"/>
    </edge>
    <edge id=":gneJ104_31" function="internal">
        <lane id=":gneJ104_31_0" index="0" speed="11.36" length="19.74" shape="-307.20,-199.52 -303.00,-197.00 -299.55,-191.25 -298.40,-183.20"/>
    </edge>
    <edge id=":gneJ105_0" function="internal">
        <lane id=":gneJ105_0_0" index="0" speed="6.51" length="9.03" shape="-211.20,-183.20 -211.55,-185.65 -212.60,-187.40 -214.35,-188.45 -216.80,-188.80"/>
    </edge>
    <edge id=":gneJ105_1" function="internal">
        <lane id=":gneJ105_1_0" index="0" speed="13.89" length="33.60" shape="-211.20,-183.20 -211.20,-216.80"/>
        <lane id=":gneJ105_1_1" index="1" speed="13.89" length="33.60" shape="-208.00,-183.20 -208.00,-216.80"/>
        <lane id=":gneJ105_1_2" index="2" speed="13.89" length="33.60" shape="-204.80,-183.20 -204.80,-216.80"/>